topology_creation/OpenDSS_data/LINES_LV_7.dss
new line.LVN_7_1 bus1=LVN_7_b1 bus2=LVN_7_b474 phases=3 linecode=4c_1 length=11.045700 units=m
new line.LVN_7_2 bus1=LVN_7_b3 bus2=LVN_7_b5 phases=3 linecode=2c_16 length=8.444910 units=m
new line.LVN_7_3 bus1=LVN_7_b5 bus2=LVN_7_b6 phases=3 linecode=35_SA length=6.026880 units=m
new line.LVN_7_4 bus1=LVN_7_b5 bus2=LVN_7_b7 phases=3 linecode=4c_1 length=6.095810 units=m
new line.LVN_7_5 bus1=LVN_7_b5 bus2=LVN_7_b9 phases=3 linecode=35_SA length=6.603080 units=m
new line.LVN_7_6 bus1=LVN_7_b7 bus2=LVN_7_b11 phases=3 linecode=2c_16 length=7.896470 units=m
new line.LVN_7_7 bus1=LVN_7_b7 bus2=LVN_7_b13 phases=3 linecode=4c_1 length=13.641300 units=m
new line.LVN_7_8 bus1=LVN_7_b12 bus2=LVN_7_b13 phases=3 linecode=4c_1 length=9.156470 units=m
new line.LVN_7_9 bus1=LVN_7_b12 bus2=LVN_7_b29 phases=3 linecode=4c_1 length=21.202300 units=m
new line.LVN_7_10 bus1=LVN_7_b12 bus2=LVN_7_b34 phases=3 linecode=4c_1 length=11.561000 units=m
new line.LVN_7_11 bus1=LVN_7_b13 bus2=LVN_7_b20 phases=3 linecode=4c_1 length=23.800200 units=m
new line.LVN_7_12 bus1=LVN_7_b20 bus2=LVN_7_b21 phases=3 linecode=4c_1 length=9.930260 units=m
new line.LVN_7_13 bus1=LVN_7_b20 bus2=LVN_7_b52 phases=3 linecode=4c_1 length=20.155200 units=m
new line.LVN_7_14 bus1=LVN_7_b21 bus2=LVN_7_b25 phases=3 linecode=4c_1 length=8.963540 units=m
new line.LVN_7_15 bus1=LVN_7_b21 bus2=LVN_7_b51 phases=3 linecode=2c_022 length=11.974500 units=m
new line.LVN_7_16 bus1=LVN_7_b22 bus2=LVN_7_b24 phases=3 linecode=2c_16 length=9.067700 units=m
new line.LVN_7_17 bus1=LVN_7_b24 bus2=LVN_7_b25 phases=3 linecode=4c_1 length=5.806630 units=m
new line.LVN_7_18 bus1=LVN_7_b24 bus2=LVN_7_b38 phases=3 linecode=2c_16 length=7.011800 units=m
new line.LVN_7_19 bus1=LVN_7_b25 bus2=LVN_7_b26 phases=3 linecode=2c_022 length=8.903830 units=m
new line.LVN_7_20 bus1=LVN_7_b29 bus2=LVN_7_b55 phases=3 linecode=4c_1 length=13.926000 units=m
new line.LVN_7_21 bus1=LVN_7_b29 bus2=LVN_7_b65 phases=3 linecode=4c_1 length=19.658400 units=m
new line.LVN_7_22 bus1=LVN_7_b34 bus2=LVN_7_b36 phases=3 linecode=35_SA length=11.482200 units=m
new line.LVN_7_23 bus1=LVN_7_b34 bus2=LVN_7_b39 phases=3 linecode=4c_1 length=6.980100 units=m
new line.LVN_7_24 bus1=LVN_7_b39 bus2=LVN_7_b43 phases=3 linecode=35_SA length=13.032400 units=m
new line.LVN_7_25 bus1=LVN_7_b39 bus2=LVN_7_b45 phases=3 linecode=2c_16 length=8.826860 units=m
new line.LVN_7_26 bus1=LVN_7_b46 bus2=LVN_7_b48 phases=3 linecode=2c_022 length=10.414600 units=m
new line.LVN_7_27 bus1=LVN_7_b48 bus2=LVN_7_b69 phases=3 linecode=35_SA length=11.579700 units=m
new line.LVN_7_28 bus1=LVN_7_b48 bus2=LVN_7_b75 phases=3 linecode=4c_1 length=8.926990 units=m
new line.LVN_7_29 bus1=LVN_7_b52 bus2=LVN_7_b79 phases=3 linecode=4c_1 length=12.728700 units=m
new line.LVN_7_30 bus1=LVN_7_b52 bus2=LVN_7_b82 phases=3 linecode=4c_1 length=20.155200 units=m
new line.LVN_7_31 bus1=LVN_7_b55 bus2=LVN_7_b57 phases=3 linecode=35_SA length=11.419700 units=m
new line.LVN_7_32 bus1=LVN_7_b55 bus2=LVN_7_b74 phases=3 linecode=4c_1 length=5.688560 units=m
new line.LVN_7_33 bus1=LVN_7_b58 bus2=LVN_7_b61 phases=3 linecode=2c_16 length=9.341390 units=m
new line.LVN_7_34 bus1=LVN_7_b61 bus2=LVN_7_b76 phases=3 linecode=2c_022 length=7.590480 units=m
new line.LVN_7_35 bus1=LVN_7_b61 bus2=LVN_7_b79 phases=3 linecode=4c_1 length=14.136000 units=m
new line.LVN_7_36 bus1=LVN_7_b65 bus2=LVN_7_b66 phases=3 linecode=4c_1 length=11.772100 units=m
new line.LVN_7_37 bus1=LVN_7_b65 bus2=LVN_7_b112 phases=3 linecode=4c_1 length=30.114900 units=m
new line.LVN_7_38 bus1=LVN_7_b66 bus2=LVN_7_b121 phases=3 linecode=4c_1 length=9.407600 units=m
new line.LVN_7_39 bus1=LVN_7_b66 bus2=LVN_7_b126 phases=3 linecode=35_SA length=8.710320 units=m
new line.LVN_7_40 bus1=LVN_7_b71 bus2=LVN_7_b74 phases=3 linecode=35_SA length=9.598120 units=m
new line.LVN_7_41 bus1=LVN_7_b74 bus2=LVN_7_b98 phases=3 linecode=2c_022 length=8.975190 units=m
new line.LVN_7_42 bus1=LVN_7_b75 bus2=LVN_7_b85 phases=3 linecode=35_SA length=10.921100 units=m
new line.LVN_7_43 bus1=LVN_7_b75 bus2=LVN_7_b91 phases=3 linecode=4c_1 length=28.232900 units=m
new line.LVN_7_44 bus1=LVN_7_b79 bus2=LVN_7_b99 phases=3 linecode=2c_022 length=6.841100 units=m
new line.LVN_7_45 bus1=LVN_7_b82 bus2=LVN_7_b107 phases=3 linecode=4c_1 length=19.158500 units=m
new line.LVN_7_46 bus1=LVN_7_b82 bus2=LVN_7_b137 phases=3 linecode=4c_1 length=31.459200 units=m
new line.LVN_7_47 bus1=LVN_7_b86 bus2=LVN_7_b89 phases=3 linecode=4c_1 length=9.557600 units=m
new line.LVN_7_48 bus1=LVN_7_b86 bus2=LVN_7_b165 phases=3 linecode=4c_1 length=24.541900 units=m
new line.LVN_7_49 bus1=LVN_7_b86 bus2=LVN_7_b169 phases=3 linecode=4c_1 length=25.644100 units=m
new line.LVN_7_50 bus1=LVN_7_b89 bus2=LVN_7_b91 phases=3 linecode=4c_1 length=13.697000 units=m
new line.LVN_7_51 bus1=LVN_7_b89 bus2=LVN_7_b141 phases=3 linecode=4c_1 length=5.054740 units=m
new line.LVN_7_52 bus1=LVN_7_b91 bus2=LVN_7_b102 phases=3 linecode=4c_1 length=9.018310 units=m
new line.LVN_7_53 bus1=LVN_7_b100 bus2=LVN_7_b102 phases=3 linecode=2c_16 length=8.710320 units=m
new line.LVN_7_54 bus1=LVN_7_b102 bus2=LVN_7_b103 phases=3 linecode=4c_1 length=9.407600 units=m
new line.LVN_7_55 bus1=LVN_7_b103 bus2=LVN_7_b106 phases=3 linecode=2c_022 length=9.640960 units=m
new line.LVN_7_56 bus1=LVN_7_b103 bus2=LVN_7_b120 phases=3 linecode=2c_022 length=8.539520 units=m
new line.LVN_7_57 bus1=LVN_7_b107 bus2=LVN_7_b111 phases=3 linecode=35_SA length=15.630200 units=m
new line.LVN_7_58 bus1=LVN_7_b107 bus2=LVN_7_b125 phases=3 linecode=35_SA length=8.905280 units=m
new line.LVN_7_59 bus1=LVN_7_b107 bus2=LVN_7_b133 phases=3 linecode=2c_022 length=13.818900 units=m
new line.LVN_7_60 bus1=LVN_7_b112 bus2=LVN_7_b140 phases=3 linecode=2c_022 length=10.921100 units=m
new line.LVN_7_61 bus1=LVN_7_b112 bus2=LVN_7_b150 phases=3 linecode=4c_1 length=8.926990 units=m
new line.LVN_7_62 bus1=LVN_7_b121 bus2=LVN_7_b124 phases=3 linecode=2c_022 length=8.539520 units=m
new line.LVN_7_63 bus1=LVN_7_b121 bus2=LVN_7_b132 phases=3 linecode=2c_022 length=9.640960 units=m
new line.LVN_7_64 bus1=LVN_7_b137 bus2=LVN_7_b169 phases=3 linecode=4c_1 length=7.751660 units=m
new line.LVN_7_65 bus1=LVN_7_b137 bus2=LVN_7_b205 phases=3 linecode=4c_1 length=8.632980 units=m
new line.LVN_7_66 bus1=LVN_7_b141 bus2=LVN_7_b144 phases=3 linecode=35_SA length=11.672300 units=m
new line.LVN_7_67 bus1=LVN_7_b141 bus2=LVN_7_b145 phases=3 linecode=4c_1 length=5.169500 units=m
new line.LVN_7_68 bus1=LVN_7_b145 bus2=LVN_7_b147 phases=3 linecode=2c_022 length=11.516300 units=m
new line.LVN_7_69 bus1=LVN_7_b145 bus2=LVN_7_b154 phases=3 linecode=4c_1 length=4.077720 units=m
new line.LVN_7_70 bus1=LVN_7_b150 bus2=LVN_7_b153 phases=3 linecode=2c_16 length=11.579700 units=m
new line.LVN_7_71 bus1=LVN_7_b150 bus2=LVN_7_b158 phases=3 linecode=35_SA length=10.414600 units=m
new line.LVN_7_72 bus1=LVN_7_b154 bus2=LVN_7_b157 phases=3 linecode=35_SA length=11.698200 units=m
new line.LVN_7_73 bus1=LVN_7_b154 bus2=LVN_7_b170 phases=3 linecode=4c_1 length=5.231940 units=m
new line.LVN_7_74 bus1=LVN_7_b165 bus2=LVN_7_b166 phases=3 linecode=4c_1 length=6.637250 units=m
new line.LVN_7_75 bus1=LVN_7_b165 bus2=LVN_7_b227 phases=3 linecode=4c_1 length=10.680500 units=m
new line.LVN_7_76 bus1=LVN_7_b166 bus2=LVN_7_b232 phases=3 linecode=2c_16 length=8.951940 units=m
new line.LVN_7_77 bus1=LVN_7_b166 bus2=LVN_7_b242 phases=3 linecode=2c_16 length=4.434050 units=m
new line.LVN_7_78 bus1=LVN_7_b169 bus2=LVN_7_b190 phases=3 linecode=4c_1 length=5.376500 units=m
new line.LVN_7_79 bus1=LVN_7_b170 bus2=LVN_7_b173 phases=3 linecode=2c_16 length=12.008200 units=m
new line.LVN_7_80 bus1=LVN_7_b170 bus2=LVN_7_b179 phases=3 linecode=4c_1 length=6.051380 units=m
new line.LVN_7_81 bus1=LVN_7_b174 bus2=LVN_7_b175 phases=3 linecode=4c_1 length=6.980100 units=m
new line.LVN_7_82 bus1=LVN_7_b174 bus2=LVN_7_b195 phases=3 linecode=4c_1 length=33.506600 units=m
new line.LVN_7_83 bus1=LVN_7_b174 bus2=LVN_7_b203 phases=3 linecode=2c_022 length=7.596460 units=m
new line.LVN_7_84 bus1=LVN_7_b175 bus2=LVN_7_b178 phases=3 linecode=35_SA length=8.400140 units=m
new line.LVN_7_85 bus1=LVN_7_b175 bus2=LVN_7_b185 phases=3 linecode=2c_16 length=7.611120 units=m
new line.LVN_7_86 bus1=LVN_7_b179 bus2=LVN_7_b182 phases=3 linecode=2c_16 length=12.261400 units=m
new line.LVN_7_87 bus1=LVN_7_b179 bus2=LVN_7_b228 phases=3 linecode=4c_1 length=9.292570 units=m
new line.LVN_7_88 bus1=LVN_7_b190 bus2=LVN_7_b191 phases=3 linecode=4c_1 length=5.423910 units=m
new line.LVN_7_89 bus1=LVN_7_b190 bus2=LVN_7_b194 phases=3 linecode=35_SA length=7.090600 units=m
new line.LVN_7_90 bus1=LVN_7_b191 bus2=LVN_7_b211 phases=3 linecode=2c_16 length=6.756780 units=m
new line.LVN_7_91 bus1=LVN_7_b191 bus2=LVN_7_b218 phases=3 linecode=2c_022 length=9.041530 units=m
new line.LVN_7_92 bus1=LVN_7_b195 bus2=LVN_7_b222 phases=3 linecode=4c_1 length=12.751300 units=m
new line.LVN_7_93 bus1=LVN_7_b195 bus2=LVN_7_b308 phases=3 linecode=4c_1 length=20.125500 units=m
new line.LVN_7_94 bus1=LVN_7_b205 bus2=LVN_7_b223 phases=3 linecode=4c_1 length=4.947620 units=m
new line.LVN_7_95 bus1=LVN_7_b205 bus2=LVN_7_b240 phases=3 linecode=4c_1 length=14.988200 units=m
new line.LVN_7_96 bus1=LVN_7_b207 bus2=LVN_7_b210 phases=3 linecode=2c_022 length=8.864710 units=m
new line.LVN_7_97 bus1=LVN_7_b207 bus2=LVN_7_b219 phases=3 linecode=2c_16 length=9.418820 units=m
new line.LVN_7_98 bus1=LVN_7_b207 bus2=LVN_7_b222 phases=3 linecode=4c_1 length=8.433870 units=m
new line.LVN_7_99 bus1=LVN_7_b222 bus2=LVN_7_b249 phases=3 linecode=35_SA length=5.224730 units=m
new line.LVN_7_100 bus1=LVN_7_b223 bus2=LVN_7_b226 phases=3 linecode=2c_16 length=5.725650 units=m
new line.LVN_7_101 bus1=LVN_7_b223 bus2=LVN_7_b243 phases=3 linecode=4c_1 length=3.799100 units=m
new line.LVN_7_102 bus1=LVN_7_b227 bus2=LVN_7_b288 phases=3 linecode=2c_16 length=10.501100 units=m
new line.LVN_7_103 bus1=LVN_7_b227 bus2=LVN_7_b291 phases=3 linecode=4c_1 length=8.836100 units=m
new line.LVN_7_104 bus1=LVN_7_b228 bus2=LVN_7_b238 phases=3 linecode=2c_16 length=11.667200 units=m
new line.LVN_7_105 bus1=LVN_7_b228 bus2=LVN_7_b260 phases=3 linecode=4c_1 length=10.157900 units=m
new line.LVN_7_106 bus1=LVN_7_b239 bus2=LVN_7_b240 phases=3 linecode=4c_1 length=7.697330 units=m
new line.LVN_7_107 bus1=LVN_7_b239 bus2=LVN_7_b264 phases=3 linecode=4c_1 length=27.181200 units=m
new line.LVN_7_108 bus1=LVN_7_b239 bus2=LVN_7_b270 phases=3 linecode=4c_1 length=36.963600 units=m
new line.LVN_7_109 bus1=LVN_7_b240 bus2=LVN_7_b250 phases=3 linecode=4c_1 length=8.858740 units=m
new line.LVN_7_110 bus1=LVN_7_b243 bus2=LVN_7_b257 phases=3 linecode=2c_022 length=7.155380 units=m
new line.LVN_7_111 bus1=LVN_7_b243 bus2=LVN_7_b258 phases=3 linecode=2c_16 length=5.524630 units=m
new line.LVN_7_112 bus1=LVN_7_b244 bus2=LVN_7_b248 phases=3 linecode=35_SA length=12.504000 units=m
new line.LVN_7_113 bus1=LVN_7_b244 bus2=LVN_7_b259 phases=3 linecode=35_SA length=8.152050 units=m
new line.LVN_7_114 bus1=LVN_7_b244 bus2=LVN_7_b281 phases=3 linecode=4c_1 length=6.272990 units=m
new line.LVN_7_115 bus1=LVN_7_b250 bus2=LVN_7_b282 phases=3 linecode=2c_022 length=3.867650 units=m
new line.LVN_7_116 bus1=LVN_7_b250 bus2=LVN_7_b283 phases=3 linecode=35_SA length=6.855140 units=m
new line.LVN_7_117 bus1=LVN_7_b260 bus2=LVN_7_b263 phases=3 linecode=2c_022 length=10.725400 units=m
new line.LVN_7_118 bus1=LVN_7_b260 bus2=LVN_7_b273 phases=3 linecode=4c_1 length=3.456350 units=m
new line.LVN_7_119 bus1=LVN_7_b264 bus2=LVN_7_b326 phases=3 linecode=4c_1 length=13.842800 units=m
new line.LVN_7_120 bus1=LVN_7_b264 bus2=LVN_7_b373 phases=3 linecode=4c_1 length=19.977000 units=m
new line.LVN_7_121 bus1=LVN_7_b264 bus2=LVN_7_b377 phases=3 linecode=4c_1 length=17.132600 units=m
new line.LVN_7_122 bus1=LVN_7_b267 bus2=LVN_7_b270 phases=3 linecode=4c_1 length=20.179300 units=m
new line.LVN_7_123 bus1=LVN_7_b267 bus2=LVN_7_b383 phases=3 linecode=4c_1 length=10.460600 units=m
new line.LVN_7_124 bus1=LVN_7_b267 bus2=LVN_7_b391 phases=3 linecode=4c_1 length=19.348000 units=m
new line.LVN_7_125 bus1=LVN_7_b270 bus2=LVN_7_b350 phases=3 linecode=4c_1 length=10.367000 units=m
new line.LVN_7_126 bus1=LVN_7_b271 bus2=LVN_7_b273 phases=3 linecode=2c_022 length=10.732500 units=m
new line.LVN_7_127 bus1=LVN_7_b273 bus2=LVN_7_b287 phases=3 linecode=4c_1 length=6.052500 units=m
new line.LVN_7_128 bus1=LVN_7_b275 bus2=LVN_7_b276 phases=3 linecode=2c_16 length=7.731700 units=m
new line.LVN_7_129 bus1=LVN_7_b276 bus2=LVN_7_b280 phases=3 linecode=2c_16 length=11.837900 units=m
new line.LVN_7_130 bus1=LVN_7_b276 bus2=LVN_7_b332 phases=3 linecode=4c_1 length=8.673790 units=m
new line.LVN_7_131 bus1=LVN_7_b281 bus2=LVN_7_b292 phases=3 linecode=2c_022 length=5.359380 units=m
new line.LVN_7_132 bus1=LVN_7_b281 bus2=LVN_7_b308 phases=3 linecode=4c_1 length=14.456000 units=m
new line.LVN_7_133 bus1=LVN_7_b287 bus2=LVN_7_b309 phases=3 linecode=4c_1 length=4.742320 units=m
new line.LVN_7_134 bus1=LVN_7_b287 bus2=LVN_7_b312 phases=3 linecode=2c_022 length=12.327800 units=m
new line.LVN_7_135 bus1=LVN_7_b291 bus2=LVN_7_b319 phases=3 linecode=35_SA length=9.954080 units=m
new line.LVN_7_136 bus1=LVN_7_b291 bus2=LVN_7_b320 phases=3 linecode=4c_1 length=5.955410 units=m
new line.LVN_7_137 bus1=LVN_7_b293 bus2=LVN_7_b294 phases=3 linecode=2c_16 length=7.731700 units=m
new line.LVN_7_138 bus1=LVN_7_b294 bus2=LVN_7_b298 phases=3 linecode=2c_16 length=11.837900 units=m
new line.LVN_7_139 bus1=LVN_7_b294 bus2=LVN_7_b326 phases=3 linecode=4c_1 length=8.673790 units=m
new line.LVN_7_140 bus1=LVN_7_b299 bus2=LVN_7_b300 phases=3 linecode=4c_1 length=5.169500 units=m
new line.LVN_7_141 bus1=LVN_7_b299 bus2=LVN_7_b333 phases=3 linecode=35_SA length=11.516300 units=m
new line.LVN_7_142 bus1=LVN_7_b299 bus2=LVN_7_b336 phases=3 linecode=4c_1 length=4.077720 units=m
new line.LVN_7_143 bus1=LVN_7_b300 bus2=LVN_7_b306 phases=3 linecode=4c_1 length=16.754900 units=m
new line.LVN_7_144 bus1=LVN_7_b300 bus2=LVN_7_b318 phases=3 linecode=2c_16 length=11.672300 units=m
new line.LVN_7_145 bus1=LVN_7_b306 bus2=LVN_7_b307 phases=3 linecode=2c_16 length=3.921950 units=m
new line.LVN_7_146 bus1=LVN_7_b306 bus2=LVN_7_b315 phases=3 linecode=4c_1 length=3.861760 units=m
new line.LVN_7_147 bus1=LVN_7_b308 bus2=LVN_7_b327 phases=3 linecode=4c_1 length=19.977000 units=m
new line.LVN_7_148 bus1=LVN_7_b309 bus2=LVN_7_b337 phases=3 linecode=35_SA length=6.319190 units=m
new line.LVN_7_149 bus1=LVN_7_b309 bus2=LVN_7_b338 phases=3 linecode=4c_1 length=5.206690 units=m
new line.LVN_7_150 bus1=LVN_7_b315 bus2=LVN_7_b341 phases=3 linecode=35_SA length=12.728400 units=m
new line.LVN_7_151 bus1=LVN_7_b315 bus2=LVN_7_b345 phases=3 linecode=2c_022 length=12.212900 units=m
new line.LVN_7_152 bus1=LVN_7_b320 bus2=LVN_7_b323 phases=3 linecode=4c_1 length=4.854210 units=m
new line.LVN_7_153 bus1=LVN_7_b320 bus2=LVN_7_b325 phases=3 linecode=35_SA length=10.029700 units=m
new line.LVN_7_154 bus1=LVN_7_b321 bus2=LVN_7_b323 phases=3 linecode=2c_16 length=10.347600 units=m
new line.LVN_7_155 bus1=LVN_7_b323 bus2=LVN_7_b355 phases=3 linecode=4c_1 length=10.409200 units=m
new line.LVN_7_156 bus1=LVN_7_b326 bus2=LVN_7_b356 phases=3 linecode=2c_16 length=6.166010 units=m
new line.LVN_7_157 bus1=LVN_7_b327 bus2=LVN_7_b332 phases=3 linecode=4c_1 length=13.842800 units=m
new line.LVN_7_158 bus1=LVN_7_b327 bus2=LVN_7_b391 phases=3 linecode=4c_1 length=17.132600 units=m
new line.LVN_7_159 bus1=LVN_7_b327 bus2=LVN_7_b406 phases=3 linecode=4c_1 length=15.486200 units=m
new line.LVN_7_160 bus1=LVN_7_b332 bus2=LVN_7_b351 phases=3 linecode=2c_022 length=6.166010 units=m
new line.LVN_7_161 bus1=LVN_7_b336 bus2=LVN_7_b348 phases=3 linecode=35_SA length=11.698200 units=m
new line.LVN_7_162 bus1=LVN_7_b336 bus2=LVN_7_b349 phases=3 linecode=4c_1 length=5.231940 units=m
new line.LVN_7_163 bus1=LVN_7_b338 bus2=LVN_7_b340 phases=3 linecode=2c_022 length=8.117830 units=m
new line.LVN_7_164 bus1=LVN_7_b338 bus2=LVN_7_b349 phases=3 linecode=4c_1 length=19.584800 units=m
new line.LVN_7_165 bus1=LVN_7_b349 bus2=LVN_7_b359 phases=3 linecode=35_SA length=12.008200 units=m
new line.LVN_7_166 bus1=LVN_7_b350 bus2=LVN_7_b364 phases=3 linecode=4c_1 length=5.688560 units=m
new line.LVN_7_167 bus1=LVN_7_b350 bus2=LVN_7_b368 phases=3 linecode=2c_16 length=11.419700 units=m
new line.LVN_7_168 bus1=LVN_7_b355 bus2=LVN_7_b381 phases=3 linecode=4c_1 length=6.509560 units=m
new line.LVN_7_169 bus1=LVN_7_b355 bus2=LVN_7_b382 phases=3 linecode=2c_16 length=6.104490 units=m
new line.LVN_7_170 bus1=LVN_7_b364 bus2=LVN_7_b367 phases=3 linecode=35_SA length=9.598120 units=m
new line.LVN_7_171 bus1=LVN_7_b364 bus2=LVN_7_b390 phases=3 linecode=2c_022 length=8.975190 units=m
new line.LVN_7_172 bus1=LVN_7_b373 bus2=LVN_7_b376 phases=3 linecode=4c_1 length=20.125500 units=m
new line.LVN_7_173 bus1=LVN_7_b373 bus2=LVN_7_b398 phases=3 linecode=4c_1 length=14.456000 units=m
new line.LVN_7_174 bus1=LVN_7_b376 bus2=LVN_7_b441 phases=3 linecode=4c_1 length=12.751300 units=m
new line.LVN_7_175 bus1=LVN_7_b376 bus2=LVN_7_b495 phases=3 linecode=4c_1 length=33.506600 units=m
new line.LVN_7_176 bus1=LVN_7_b377 bus2=LVN_7_b416 phases=3 linecode=4c_1 length=12.590400 units=m
new line.LVN_7_177 bus1=LVN_7_b377 bus2=LVN_7_b456 phases=3 linecode=4c_1 length=19.348000 units=m
new line.LVN_7_178 bus1=LVN_7_b381 bus2=LVN_7_b392 phases=3 linecode=4c_1 length=5.445150 units=m
new line.LVN_7_179 bus1=LVN_7_b381 bus2=LVN_7_b393 phases=3 linecode=2c_16 length=6.635570 units=m
new line.LVN_7_180 bus1=LVN_7_b383 bus2=LVN_7_b385 phases=3 linecode=35_SA length=11.482200 units=m
new line.LVN_7_181 bus1=LVN_7_b383 bus2=LVN_7_b407 phases=3 linecode=4c_1 length=6.980100 units=m
new line.LVN_7_182 bus1=LVN_7_b387 bus2=LVN_7_b388 phases=3 linecode=2c_16 length=8.152050 units=m
new line.LVN_7_183 bus1=LVN_7_b388 bus2=LVN_7_b397 phases=3 linecode=2c_022 length=12.504000 units=m
new line.LVN_7_184 bus1=LVN_7_b388 bus2=LVN_7_b398 phases=3 linecode=4c_1 length=6.272990 units=m
new line.LVN_7_185 bus1=LVN_7_b391 bus2=LVN_7_b412 phases=3 linecode=4c_1 length=12.590400 units=m
new line.LVN_7_186 bus1=LVN_7_b392 bus2=LVN_7_b419 phases=3 linecode=4c_1 length=6.779740 units=m
new line.LVN_7_187 bus1=LVN_7_b392 bus2=LVN_7_b420 phases=3 linecode=35_SA length=6.251450 units=m
new line.LVN_7_188 bus1=LVN_7_b398 bus2=LVN_7_b415 phases=3 linecode=2c_022 length=5.359380 units=m
new line.LVN_7_189 bus1=LVN_7_b406 bus2=LVN_7_b443 phases=3 linecode=4c_1 length=5.206690 units=m
new line.LVN_7_190 bus1=LVN_7_b406 bus2=LVN_7_b446 phases=3 linecode=35_SA length=9.543580 units=m
new line.LVN_7_191 bus1=LVN_7_b407 bus2=LVN_7_b411 phases=3 linecode=2c_16 length=13.032400 units=m
new line.LVN_7_192 bus1=LVN_7_b407 bus2=LVN_7_b431 phases=3 linecode=2c_16 length=8.826860 units=m
new line.LVN_7_193 bus1=LVN_7_b412 bus2=LVN_7_b414 phases=3 linecode=2c_022 length=8.846340 units=m
new line.LVN_7_194 bus1=LVN_7_b412 bus2=LVN_7_b447 phases=3 linecode=4c_1 length=4.191830 units=m
new line.LVN_7_195 bus1=LVN_7_b416 bus2=LVN_7_b418 phases=3 linecode=35_SA length=8.846340 units=m
new line.LVN_7_196 bus1=LVN_7_b416 bus2=LVN_7_b427 phases=3 linecode=4c_1 length=4.191830 units=m
new line.LVN_7_197 bus1=LVN_7_b419 bus2=LVN_7_b435 phases=3 linecode=4c_1 length=5.524230 units=m
new line.LVN_7_198 bus1=LVN_7_b419 bus2=LVN_7_b436 phases=3 linecode=2c_16 length=7.061750 units=m
new line.LVN_7_199 bus1=LVN_7_b422 bus2=LVN_7_b425 phases=3 linecode=2c_022 length=6.097140 units=m
new line.LVN_7_200 bus1=LVN_7_b425 bus2=LVN_7_b426 phases=3 linecode=4c_1 length=2.779740 units=m
new line.LVN_7_201 bus1=LVN_7_b425 bus2=LVN_7_b459 phases=3 linecode=2c_022 length=6.423840 units=m
new line.LVN_7_202 bus1=LVN_7_b426 bus2=LVN_7_b427 phases=3 linecode=4c_1 length=4.709520 units=m
new line.LVN_7_203 bus1=LVN_7_b426 bus2=LVN_7_b432 phases=3 linecode=2c_16 length=9.553620 units=m
new line.LVN_7_204 bus1=LVN_7_b427 bus2=LVN_7_b429 phases=3 linecode=35_SA length=8.965260 units=m
new line.LVN_7_205 bus1=LVN_7_b435 bus2=LVN_7_b449 phases=3 linecode=4c_1 length=23.597200 units=m
new line.LVN_7_206 bus1=LVN_7_b435 bus2=LVN_7_b451 phases=3 linecode=2c_022 length=6.313110 units=m
new line.LVN_7_207 bus1=LVN_7_b437 bus2=LVN_7_b440 phases=3 linecode=35_SA length=9.418820 units=m
new line.LVN_7_208 bus1=LVN_7_b440 bus2=LVN_7_b441 phases=3 linecode=4c_1 length=8.433870 units=m
new line.LVN_7_209 bus1=LVN_7_b440 bus2=LVN_7_b462 phases=3 linecode=2c_022 length=8.864710 units=m
new line.LVN_7_210 bus1=LVN_7_b441 bus2=LVN_7_b481 phases=3 linecode=2c_022 length=5.224730 units=m
new line.LVN_7_211 bus1=LVN_7_b442 bus2=LVN_7_b443 phases=3 linecode=2c_16 length=9.941670 units=m
new line.LVN_7_212 bus1=LVN_7_b443 bus2=LVN_7_b452 phases=3 linecode=4c_1 length=4.742320 units=m
new line.LVN_7_213 bus1=LVN_7_b447 bus2=LVN_7_b468 phases=3 linecode=4c_1 length=4.709520 units=m
new line.LVN_7_214 bus1=LVN_7_b447 bus2=LVN_7_b470 phases=3 linecode=2c_16 length=8.965260 units=m
new line.LVN_7_215 bus1=LVN_7_b449 bus2=LVN_7_b450 phases=3 linecode=4c_1 length=5.725410 units=m
new line.LVN_7_216 bus1=LVN_7_b449 bus2=LVN_7_b485 phases=3 linecode=4c_1 length=12.126600 units=m
new line.LVN_7_217 bus1=LVN_7_b449 bus2=LVN_7_b533 phases=3 linecode=4c_1 length=15.998000 units=m
new line.LVN_7_218 bus1=LVN_7_b450 bus2=LVN_7_b536 phases=3 linecode=35_SA length=6.461280 units=m
new line.LVN_7_219 bus1=LVN_7_b450 bus2=LVN_7_b543 phases=3 linecode=2c_022 length=7.939710 units=m
new line.LVN_7_220 bus1=LVN_7_b452 bus2=LVN_7_b455 phases=3 linecode=2c_16 length=14.639800 units=m
new line.LVN_7_221 bus1=LVN_7_b452 bus2=LVN_7_b463 phases=3 linecode=4c_1 length=6.052500 units=m
new line.LVN_7_222 bus1=LVN_7_b456 bus2=LVN_7_b473 phases=3 linecode=4c_1 length=20.179300 units=m
new line.LVN_7_223 bus1=LVN_7_b456 bus2=LVN_7_b475 phases=3 linecode=4c_1 length=10.460600 units=m
new line.LVN_7_224 bus1=LVN_7_b463 bus2=LVN_7_b499 phases=3 linecode=4c_1 length=3.456350 units=m
new line.LVN_7_225 bus1=LVN_7_b463 bus2=LVN_7_b501 phases=3 linecode=2c_16 length=10.732500 units=m
new line.LVN_7_226 bus1=LVN_7_b464 bus2=LVN_7_b467 phases=3 linecode=2c_16 length=6.097140 units=m
new line.LVN_7_227 bus1=LVN_7_b467 bus2=LVN_7_b468 phases=3 linecode=4c_1 length=2.779740 units=m
new line.LVN_7_228 bus1=LVN_7_b467 bus2=LVN_7_b484 phases=3 linecode=2c_16 length=6.423840 units=m
new line.LVN_7_229 bus1=LVN_7_b468 bus2=LVN_7_b478 phases=3 linecode=2c_022 length=9.553620 units=m
new line.LVN_7_230 bus1=LVN_7_b473 bus2=LVN_7_b474 phases=3 linecode=4c_1 length=15.041200 units=m
new line.LVN_7_231 bus1=LVN_7_b473 bus2=LVN_7_b546 phases=3 linecode=4c_1 length=10.367000 units=m
new line.LVN_7_232 bus1=LVN_7_b474 bus2=LVN_7_b575 phases=3 linecode=4c_1 length=21.908900 units=m
new line.LVN_7_233 bus1=LVN_7_b475 bus2=LVN_7_b477 phases=3 linecode=2c_022 length=11.482200 units=m
new line.LVN_7_234 bus1=LVN_7_b475 bus2=LVN_7_b508 phases=3 linecode=4c_1 length=6.980100 units=m
new line.LVN_7_235 bus1=LVN_7_b485 bus2=LVN_7_b489 phases=3 linecode=35_SA length=6.566390 units=m
new line.LVN_7_236 bus1=LVN_7_b485 bus2=LVN_7_b520 phases=3 linecode=2c_022 length=7.128950 units=m
new line.LVN_7_237 bus1=LVN_7_b495 bus2=LVN_7_b498 phases=3 linecode=35_SA length=7.596460 units=m
new line.LVN_7_238 bus1=LVN_7_b495 bus2=LVN_7_b513 phases=3 linecode=4c_1 length=6.980100 units=m
new line.LVN_7_239 bus1=LVN_7_b499 bus2=LVN_7_b507 phases=3 linecode=2c_16 length=10.725400 units=m
new line.LVN_7_240 bus1=LVN_7_b499 bus2=LVN_7_b524 phases=3 linecode=4c_1 length=10.157900 units=m
new line.LVN_7_241 bus1=LVN_7_b508 bus2=LVN_7_b512 phases=3 linecode=35_SA length=13.032400 units=m
new line.LVN_7_242 bus1=LVN_7_b508 bus2=LVN_7_b529 phases=3 linecode=35_SA length=8.826860 units=m
new line.LVN_7_243 bus1=LVN_7_b513 bus2=LVN_7_b516 phases=3 linecode=2c_16 length=7.611120 units=m
new line.LVN_7_244 bus1=LVN_7_b513 bus2=LVN_7_b532 phases=3 linecode=2c_022 length=8.400140 units=m
new line.LVN_7_245 bus1=LVN_7_b524 bus2=LVN_7_b527 phases=3 linecode=35_SA length=11.667200 units=m
new line.LVN_7_246 bus1=LVN_7_b524 bus2=LVN_7_b557 phases=3 linecode=2c_16 length=23.661200 units=m
new line.LVN_7_247 bus1=LVN_7_b533 bus2=LVN_7_b534 phases=3 linecode=4c_1 length=11.130700 units=m
new line.LVN_7_248 bus1=LVN_7_b533 bus2=LVN_7_b562 phases=3 linecode=4c_1 length=7.775250 units=m
new line.LVN_7_249 bus1=LVN_7_b533 bus2=LVN_7_b566 phases=3 linecode=4c_1 length=13.908100 units=m
new line.LVN_7_250 bus1=LVN_7_b534 bus2=LVN_7_b582 phases=3 linecode=2c_16 length=5.701400 units=m
new line.LVN_7_251 bus1=LVN_7_b534 bus2=LVN_7_b586 phases=3 linecode=2c_16 length=5.049150 units=m
new line.LVN_7_252 bus1=LVN_7_b544 bus2=LVN_7_b546 phases=3 linecode=2c_022 length=11.419700 units=m
new line.LVN_7_253 bus1=LVN_7_b546 bus2=LVN_7_b551 phases=3 linecode=4c_1 length=5.688560 units=m
new line.LVN_7_254 bus1=LVN_7_b551 bus2=LVN_7_b554 phases=3 linecode=35_SA length=9.598120 units=m
new line.LVN_7_255 bus1=LVN_7_b551 bus2=LVN_7_b570 phases=3 linecode=2c_16 length=8.975190 units=m
new line.LVN_7_256 bus1=LVN_7_b558 bus2=LVN_7_b562 phases=3 linecode=35_SA length=4.440030 units=m
new line.LVN_7_257 bus1=LVN_7_b562 bus2=LVN_7_b565 phases=3 linecode=2c_16 length=3.520100 units=m
new line.LVN_7_258 bus1=LVN_7_b566 bus2=LVN_7_b568 phases=3 linecode=35_SA length=14.890200 units=m
new line.LVN_7_259 bus1=LVN_7_b566 bus2=LVN_7_b592 phases=3 linecode=4c_1 length=7.715360 units=m
new line.LVN_7_260 bus1=LVN_7_b571 bus2=LVN_7_b573 phases=3 linecode=35_SA length=10.414600 units=m
new line.LVN_7_261 bus1=LVN_7_b573 bus2=LVN_7_b589 phases=3 linecode=2c_022 length=11.579700 units=m
new line.LVN_7_262 bus1=LVN_7_b573 bus2=LVN_7_b591 phases=3 linecode=4c_1 length=8.926990 units=m
new line.LVN_7_263 bus1=LVN_7_b574 bus2=LVN_7_b575 phases=3 linecode=4c_1 length=19.158500 units=m
new line.LVN_7_264 bus1=LVN_7_b574 bus2=LVN_7_b628 phases=3 linecode=2c_16 length=13.818900 units=m
new line.LVN_7_265 bus1=LVN_7_b574 bus2=LVN_7_b639 phases=3 linecode=35_SA length=8.905280 units=m
new line.LVN_7_266 bus1=LVN_7_b574 bus2=LVN_7_b643 phases=3 linecode=2c_16 length=15.630200 units=m
new line.LVN_7_267 bus1=LVN_7_b575 bus2=LVN_7_b615 phases=3 linecode=4c_1 length=20.155200 units=m
new line.LVN_7_268 bus1=LVN_7_b591 bus2=LVN_7_b596 phases=3 linecode=2c_022 length=10.921100 units=m
new line.LVN_7_269 bus1=LVN_7_b591 bus2=LVN_7_b602 phases=3 linecode=4c_1 length=30.114900 units=m
new line.LVN_7_270 bus1=LVN_7_b592 bus2=LVN_7_b593 phases=3 linecode=4c_1 length=11.954000 units=m
new line.LVN_7_271 bus1=LVN_7_b592 bus2=LVN_7_b603 phases=3 linecode=4c_1 length=9.954770 units=m
new line.LVN_7_272 bus1=LVN_7_b592 bus2=LVN_7_b607 phases=3 linecode=2c_16 length=12.418900 units=m
new line.LVN_7_273 bus1=LVN_7_b593 bus2=LVN_7_b612 phases=3 linecode=35_SA length=8.530130 units=m
new line.LVN_7_274 bus1=LVN_7_b593 bus2=LVN_7_b622 phases=3 linecode=35_SA length=4.259600 units=m
new line.LVN_7_275 bus1=LVN_7_b593 bus2=LVN_7_b627 phases=3 linecode=2c_16 length=8.523710 units=m
new line.LVN_7_276 bus1=LVN_7_b602 bus2=LVN_7_b634 phases=3 linecode=4c_1 length=11.772100 units=m
new line.LVN_7_277 bus1=LVN_7_b602 bus2=LVN_7_b650 phases=3 linecode=4c_1 length=19.658400 units=m
new line.LVN_7_278 bus1=LVN_7_b603 bus2=LVN_7_b618 phases=3 linecode=35_SA length=9.499570 units=m
new line.LVN_7_279 bus1=LVN_7_b603 bus2=LVN_7_b621 phases=3 linecode=4c_1 length=4.179250 units=m
new line.LVN_7_280 bus1=LVN_7_b613 bus2=LVN_7_b614 phases=3 linecode=4c_1 length=14.136000 units=m
new line.LVN_7_281 bus1=LVN_7_b613 bus2=LVN_7_b670 phases=3 linecode=35_SA length=7.590480 units=m
new line.LVN_7_282 bus1=LVN_7_b613 bus2=LVN_7_b671 phases=3 linecode=2c_16 length=9.341390 units=m
new line.LVN_7_283 bus1=LVN_7_b614 bus2=LVN_7_b615 phases=3 linecode=4c_1 length=12.728700 units=m
new line.LVN_7_284 bus1=LVN_7_b614 bus2=LVN_7_b653 phases=3 linecode=35_SA length=6.841100 units=m
new line.LVN_7_285 bus1=LVN_7_b615 bus2=LVN_7_b664 phases=3 linecode=4c_1 length=20.155200 units=m
new line.LVN_7_286 bus1=LVN_7_b621 bus2=LVN_7_b651 phases=3 linecode=4c_1 length=7.057580 units=m
new line.LVN_7_287 bus1=LVN_7_b621 bus2=LVN_7_b654 phases=3 linecode=2c_16 length=11.811300 units=m
new line.LVN_7_288 bus1=LVN_7_b632 bus2=LVN_7_b634 phases=3 linecode=35_SA length=8.710320 units=m
new line.LVN_7_289 bus1=LVN_7_b634 bus2=LVN_7_b638 phases=3 linecode=4c_1 length=9.407600 units=m
new line.LVN_7_290 bus1=LVN_7_b635 bus2=LVN_7_b638 phases=3 linecode=35_SA length=9.640960 units=m
new line.LVN_7_291 bus1=LVN_7_b638 bus2=LVN_7_b646 phases=3 linecode=2c_022 length=8.539520 units=m
new line.LVN_7_292 bus1=LVN_7_b650 bus2=LVN_7_b674 phases=3 linecode=4c_1 length=13.926000 units=m
new line.LVN_7_293 bus1=LVN_7_b650 bus2=LVN_7_b683 phases=3 linecode=4c_1 length=21.202300 units=m
new line.LVN_7_294 bus1=LVN_7_b651 bus2=LVN_7_b652 phases=3 linecode=2c_022 length=6.240610 units=m
new line.LVN_7_295 bus1=LVN_7_b651 bus2=LVN_7_b661 phases=3 linecode=2c_022 length=10.489000 units=m
new line.LVN_7_296 bus1=LVN_7_b664 bus2=LVN_7_b688 phases=3 linecode=4c_1 length=9.930260 units=m
new line.LVN_7_297 bus1=LVN_7_b664 bus2=LVN_7_b698 phases=3 linecode=4c_1 length=23.800200 units=m
new line.LVN_7_298 bus1=LVN_7_b665 bus2=LVN_7_b667 phases=3 linecode=2c_16 length=8.975190 units=m
new line.LVN_7_299 bus1=LVN_7_b665 bus2=LVN_7_b674 phases=3 linecode=4c_1 length=5.688560 units=m
new line.LVN_7_300 bus1=LVN_7_b665 bus2=LVN_7_b677 phases=3 linecode=2c_022 length=9.598120 units=m
new line.LVN_7_301 bus1=LVN_7_b674 bus2=LVN_7_b676 phases=3 linecode=2c_16 length=11.419700 units=m
new line.LVN_7_302 bus1=LVN_7_b683 bus2=LVN_7_b685 phases=3 linecode=4c_1 length=11.561000 units=m
new line.LVN_7_303 bus1=LVN_7_b683 bus2=LVN_7_b698 phases=3 linecode=4c_1 length=9.156470 units=m
new line.LVN_7_304 bus1=LVN_7_b685 bus2=LVN_7_b687 phases=3 linecode=35_SA length=11.482200 units=m
new line.LVN_7_305 bus1=LVN_7_b685 bus2=LVN_7_b695 phases=3 linecode=4c_1 length=6.980100 units=m
new line.LVN_7_306 bus1=LVN_7_b688 bus2=LVN_7_b691 phases=3 linecode=35_SA length=11.974500 units=m
new line.LVN_7_307 bus1=LVN_7_b688 bus2=LVN_7_b703 phases=3 linecode=4c_1 length=8.963540 units=m
new line.LVN_7_308 bus1=LVN_7_b692 bus2=LVN_7_b694 phases=3 linecode=35_SA length=7.011800 units=m
new line.LVN_7_309 bus1=LVN_7_b692 bus2=LVN_7_b703 phases=3 linecode=4c_1 length=5.806630 units=m
new line.LVN_7_310 bus1=LVN_7_b692 bus2=LVN_7_b705 phases=3 linecode=2c_16 length=9.067700 units=m
new line.LVN_7_311 bus1=LVN_7_b695 bus2=LVN_7_b697 phases=3 linecode=2c_022 length=8.826860 units=m
new line.LVN_7_312 bus1=LVN_7_b695 bus2=LVN_7_b713 phases=3 linecode=2c_022 length=13.032400 units=m
new line.LVN_7_313 bus1=LVN_7_b698 bus2=LVN_7_b716 phases=3 linecode=4c_1 length=13.641300 units=m
new line.LVN_7_314 bus1=LVN_7_b703 bus2=LVN_7_b706 phases=3 linecode=35_SA length=8.903830 units=m
new line.LVN_7_315 bus1=LVN_7_b716 bus2=LVN_7_b717 phases=3 linecode=35_SA length=7.896470 units=m
new line.LVN_7_316 bus1=LVN_7_b716 bus2=LVN_7_b720 phases=3 linecode=4c_1 length=6.095810 units=m
new line.LVN_7_317 bus1=LVN_7_b720 bus2=LVN_7_b722 phases=3 linecode=35_SA length=6.603080 units=m
new line.LVN_7_318 bus1=LVN_7_b720 bus2=LVN_7_b723 phases=3 linecode=35_SA length=8.444910 units=m
new line.LVN_7_319 bus1=LVN_7_b720 bus2=LVN_7_b726 phases=3 linecode=2c_022 length=6.026880 units=m
